$ NASTRAN input file created by the MSC MSC.Nastran input file
$ translator ( MSC.Patran 2000 r2 ) on November  21, 2001 at 21:47:04.
ASSIGN OUTPUT2 = 'model_TET10_cut1.op2', UNIT = 12
$ Direct Text Input for File Management Section
$ Normal Modes Analysis, Database
SOL 103
TIME 600
$ Direct Text Input for Executive Control
CEND
SEALL = ALL
SUPER = ALL
TITLE = MSC.Nastran job created on 21-Nov-01 at 20:47:48
ECHO = NONE
MAXLINES = 999999999
$ Direct Text Input for Global Case Control Data
SUBCASE 1
$ Subcase name : Default
   SUBTITLE=Default
   METHOD = 1
   VECTOR(SORT1,REAL)=ALL
   SPCFORCES(SORT1,REAL)=ALL
$ Direct Text Input for this Subcase
BEGIN BULK
PARAM    POST    -1
PARAM,NOCOMPS,-1
PARAM   PRTMAXIM YES
EIGRL    1                       10      0                       MASS
$ Direct Text Input for Bulk Data
$ Elements and Element Properties for region : model
PSOLID   1       1       0
$ Pset: "model" will be imported as: "psolid.1"
CTETRA         1       1       1       6      46       2    3829    9535
            4212    3952    9990    9790
CTETRA         2       1      83      46      51      47    4213    9536
            4384    3684    9792    9385
CTETRA         3       1      11      51       6       7    4385    9537
            3828    3692    9387    9988
CTETRA         4       1       2       7      47       3    9989    9386
            9791    3953    3693    3685
CTETRA         5       1       2       7      51      47    9989    9387
            9994    9791    9386    9385
CTETRA         6       1       2      51       7       6    9994    9387
            9989    9990    9537    9988
CTETRA         7       1       2      51      46      47    9994    9536
            9790    9791    9385    9792
CTETRA         8       1       2      46      51       6    9790    9536
            9994    9990    9535    9537
CTETRA         9       1      93      88      54      94    2765    4795
            1924    3370    7605    5875
CTETRA        10       1      11      54      51      55    1925    4796
            4385    1940    5877    9658
CTETRA        11       1      83      51      88      89    4384    4797
            2764    2184    9660    7603
CTETRA        12       1      94      89      55      95    7604    9659
            5876    3371    2185    1941
CTETRA        13       1      94      89      51      55    7604    9660
            9995    5876    9659    9658
CTETRA        14       1      94      51      89      88    9995    9660
            7604    7605    4797    7603
CTETRA        15       1      94      51      54      55    9995    4796
            5875    5876    9658    5877
CTETRA        16       1      94      54      51      88    5875    4796
            9995    7605    4795    4797
CTETRA        17       1      13       8      56      12    3503    8479
            2380    3968    9177    9673
CTETRA        18       1      95      56      52      55    2381    8480
            3746    1941    9675    8839
CTETRA        19       1       3      52       8       7    3747    8481
            3502    3693    8841    9175
CTETRA        20       1      12       7      55      11    9176    8840
            9674    3969    3692    1940
$ ... 12760 like lines cut
$ Referenced Material Records
$ Material Record : mat
$ Description of Material : Date: 21-Nov-01           Time: 20:24:26
MAT1     1       2.06+11         .3      7800.
$ Nodes of the Entire Model
GRID*                  1                 0.0000000000000 0.0000000000000
*        0.0000000000000                                                
GRID*                  2                 2.500000000E-01 0.0000000000000
*        0.0000000000000                                                
GRID*                  3                 5.000000000E-01 0.0000000000000
*        0.0000000000000                                                
GRID*                  4                 7.500000000E-01 0.0000000000000
*        0.0000000000000                                                
GRID*                  5                 1.000000000E+00 0.0000000000000
*        0.0000000000000                                                
GRID*                  6                 0.0000000000000 2.500000000E-01
*        0.0000000000000                                                
GRID*                  7                 2.500000000E-01 2.500000000E-01
*        0.0000000000000                                                
GRID*                  8                 5.000000000E-01 2.500000000E-01
*        0.0000000000000                                                
GRID*                  9                 7.500000000E-01 2.500000000E-01
*        0.0000000000000                                                
GRID*                 10                 1.000000000E+00 2.500000000E-01
*        0.0000000000000                                                
GRID*                 11                 0.0000000000000 5.000000000E-01
*        0.0000000000000                                                
GRID*                 12                 2.500000000E-01 5.000000000E-01
*        0.0000000000000                                                
GRID*                 13                 5.000000000E-01 5.000000000E-01
*        0.0000000000000                                                
GRID*                 14                 7.500000000E-01 5.000000000E-01
*        0.0000000000000                                                
GRID*                 15                 1.000000000E+00 5.000000000E-01
*        0.0000000000000                                                
GRID*                 16                 0.0000000000000 7.500000000E-01
*        0.0000000000000                                                
GRID*                 17                 2.500000000E-01 7.500000000E-01
*        0.0000000000000                                                
GRID*                 18                 5.000000000E-01 7.500000000E-01
*        0.0000000000000                                                
GRID*                 19                 7.500000000E-01 7.500000000E-01
*        0.0000000000000                                                
GRID*                 20                 1.000000000E+00 7.500000000E-01
*        0.0000000000000                                                
$ ... 21546 like lines cut
$ Loads for Load Case : Default
$ Referenced Coordinate Frames
ENDDATA 
