ID D:\home\sugimoto\Femap\Al,Femap
SOL SEMODES
TIME 10000
CEND
METHOD = 1
  ECHO = NONE
  DISPLACEMENT(PLOT) = ALL
  SPCFORCE(PLOT) = ALL
  ESE(PLOT) = ALL
  SPC = 1
BEGIN BULK
$ ***************************************************************************
$   Written by : Femap
$   Version    : 9.10
$   Translator : NX Nastran
$   From Model : D:\home\sugimoto\Femap\Al_Steel_target_load_2.MOD
$   Date       : Wed Oct 04 16:52:43 2006
$ ***************************************************************************
$
PARAM,POST,-1
PARAM,OGEOM,NO
PARAM,AUTOSPC,YES
PARAM,GRDPNT,0
EIGRL          1                               0                    MASS
CORD2C         1       0      0.      0.      0.      0.      0.      1.+FEMAPC1
+FEMAPC1      1.      0.      1.
CORD2S         2       0      0.      0.      0.      0.      0.      1.+FEMAPC2
+FEMAPC2      1.      0.      1.
$ Femap Constraint Set 1 : target_rest
SPC            1       1  123456      0.
SPC            1       2  123456      0.
SPC            1      11  123456      0.
SPC            1      12  123456      0.
SPC            1      13  123456      0.
SPC            1      14  123456      0.
SPC            1      15  123456      0.
SPC            1      16  123456      0.
SPC            1      17  123456      0.
SPC            1      18  123456      0.
SPC            1      19  123456      0.
SPC            1      20  123456      0.
SPC            1      39  123456      0.
SPC            1      47  123456      0.
SPC            1      51  123456      0.
SPC            1      52  123456      0.
SPC            1      65  123456      0.
SPC            1      67  123456      0.
SPC            1      68  123456      0.
SPC            1      70  123456      0.
$ ... 20 like lines cut
$ Femap Property 1 : target
PSOLID         1       1       0        
$ Femap Property 2 : hit
PSOLID         2       2       0        
$ Femap Property 3 : Untitled
PSOLID         3       2       0        
$ Femap Material 1 : 2024-T351 Al Plate .25-.5
MAT1           1 1.07E+7            0.332.591E-41.255E-5     70.        +MT    1
+MT    1  42000.  40000.  38000.
MAT4           11.644E-3  83.0762.591E-4
$ Femap Material 2 : AISI 4340 Steel
MAT1           2  2.9E+7            0.327.331E-4  6.6E-6     70.        +MT    2
+MT    2 215000. 240000. 156000.
MAT4           24.861E-4   38.647.331E-4
GRID           1       0 0.66667      0.      2.       0        
GRID           2       0 1.33333      0.      2.       0        
GRID           3       0      2. 0.66667      2.       0        
GRID           4       0      2.      2.      2.       0        
GRID           5       0 0.66667      2.      2.       0        
GRID           6       0      0. 1.33333      2.       0        
GRID           7       0 0.66667 0.66667      2.       0        
GRID           8       0 1.33333 0.66667      2.       0        
GRID           9       0 0.66667 1.33333      2.       0        
GRID          10       0 1.33333 1.33333      2.       0        
GRID          11       0      2.      0.      2.       0        
GRID          12       0 0.66667      0.      0.       0        
GRID          13       0 1.33333      0.      0.       0        
GRID          14       0 1.33333      0. 0.66667       0        
GRID          15       0 1.33333      0. 1.33333       0        
GRID          16       0 0.66667      0. 0.66667       0        
GRID          17       0 0.66667      0. 1.33333       0        
GRID          18       0      0.      0. 0.66667       0        
GRID          19       0      0.      0. 1.33333       0        
GRID          20       0      0.      0.      2.       0        
$ ... 188 like lines cut
CHEXA          1       1      20      21       7       1      19      27+EL    1
+EL    1      57      17     123      89      66      68     121     124+EA    1
+EA    1      90      67     122     140     117     116
CHEXA          2       1       1       7       8       2      17      57+EL    2
+EL    2      58      15      66      87      69      65      67      90+EA    2
+EA    2      92      71     117     197     112     110
CHEXA          3       1       2       8       3      11      15      58+EL    3
+EL    3      55      51      69      72      73      70      71      92+EA    3
+EA    3      75      98     112     195     187     111
CHEXA          4       1      21       6       9       7      27      29+EL    4
+EL    4      59      57      84      83      88      89     124      86+EA    4
+EA    4      94      90     139     144     198     140
CHEXA          5       1       7       9      10       8      57      59+EL    5
+EL    5      60      58      88      93      91      87      90      94+EA    5
+EA    5      97      92     198     202     200     197
CHEXA          6       1       8      10      50       3      58      60+EL    6
+EL    6      56      55      91      96      74      72      92      97+EA    6
+EA    6     185      75     200     196     194     195
CHEXA          7       1       6      22       5       9      29      23+EL    7
+EL    7      34      59      85      80      79      83      86     125+EA    7
+EA    7      82      94     126     128     155     144
CHEXA          8       1       9       5      31      10      59      34+EL    8
+EL    8      36      60      79      81      95      93      94      82+EA    8
+EA    8     146      97     155     154     160     202
CHEXA          9       1      10      31       4      50      60      36+EL    9
+EL    9      32      56      95      76      78      96      97     146+EA    9
+EA    9      77     185     160     147     149     196
CHEXA         10       1      19      27      57      17      18      26+EL    A
+EL    A      61      16     122     140     117     116     118     135+EA    A
+EA    A     199     113     119     138     115     114
CHEXA         11       1      17      57      58      15      16      61+EL    B
+EL    B      62      14     117     197     112     110     113     199+EA    B
+EA    B     201     106     115     205     109     107
CHEXA         12       1      15      58      55      51      14      62+EL    C
+EL    C      53      52     112     195     187     111     106     201+EA    C
+EA    C     190     186     109     191     188     108
CHEXA         13       1      27      29      59      57      26      28+EL    D
+EL    D      63      61     139     144     198     140     135     141+EA    D
+EA    D     203     199     136     143     206     138
CHEXA         14       1      57      59      60      58      61      63+EL    E
+EL    E      64      62     198     202     200     197     199     203+EA    E
+EA    E     204     201     206     208     207     205
CHEXA         15       1      58      60      56      55      62      64+EL    F
+EL    F      54      53     200     196     194     195     201     204+EA    F
+EA    F     192     190     207     193     189     191
CHEXA         16       1      29      23      34      59      28      30+EL    G
+EL    G      33      63     126     128     155     144     141     127+EA    G
+EA    G     150     203     142     145     153     143
CHEXA         17       1      59      34      36      60      63      33+EL    H
+EL    H      35      64     155     154     160     202     203     150+EA    H
+EA    H     156     204     153     151     159     208
CHEXA         18       1      60      36      32      56      64      35+EL    I
+EL    I      49      54     160     147     149     196     204     156+EA    I
+EA    I     148     192     159     158     184     193
CHEXA         19       1      18      26      61      16      39      40+EL    J
+EL    J      46      12     119     138     115     114     120     137+EA    J
+EA    J     181     100     168     169     102     101
CHEXA         20       1      16      61      62      14      12      46+EL    K
+EL    K      44      13     115     205     109     107     100     181+EA    K
+EA    K     178     103     102     177     104      99
CHEXA         21       1      14      62      53      52      13      44+EL    L
+EL    L      38      47     109     191     188     108     103     178+EA    L
+EA    L     167     182     104     165     166     105
CHEXA         22       1      26      28      63      61      40      25+EL    M
+EL    M      45      46     136     143     206     138     137     132+EA    M
+EA    M     180     181     133     134     179     169
CHEXA         23       1      61      63      64      62      46      45+EL    N
+EL    N      43      44     206     208     207     205     181     180+EA    N
+EA    N     176     178     179     175     174     177
CHEXA         24       1      62      64      54      53      44      43+EL    O
+EL    O      37      38     207     193     189     191     178     176+EA    O
+EA    O     164     167     174     162     161     165
CHEXA         25       1      28      30      33      63      25      24+EL    P
+EL    P      41      45     142     145     153     143     132     130+EA    P
+EA    P     152     180     129     131     171     134
CHEXA         26       1      63      33      35      64      45      41+EL    Q
+EL    Q      42      43     153     151     159     208     180     152+EA    Q
+EA    Q     157     176     171     170     172     175
CHEXA         27       1      64      35      49      54      43      42+EL    R
+EL    R      48      37     159     158     184     193     176     157+EA    R
+EA    R     183     164     172     173     163     162
ENDDATA
