$ NASTRAN input file created by the MSC MSC.Nastran input file
$ translator ( MSC.Patran 2001 r3 ) on December  26, 2002 at 21:47:47.
ASSIGN OUTPUT2 = 'bar_rest.op2', UNIT = 12
$ Direct Text Input for File Management Section
$ Linear Static Analysis, Database
SOL 101
$ Direct Text Input for Executive Control
CEND
SEALL = ALL
SUPER = ALL
TITLE = MSC.Nastran job created on 26-Dec-02 at 16:34:13
ECHO = NONE
$ Direct Text Input for Global Case Control Data
SUBCASE 1
$ Subcase name : rest
   SUBTITLE=rest
   SPC = 2
   DISPLACEMENT(SORT1,REAL)=ALL
   SPCFORCES(SORT1,REAL)=ALL
   STRESS(SORT1,REAL,VONMISES,BILIN)=ALL
BEGIN BULK
PARAM    POST    -1
PARAM    AUTOSPC YES
PARAM,NOCOMPS,-1
PARAM   PRTMAXIM YES
$ Direct Text Input for Bulk Data
$ Elements and Element Properties for region : prop
PSOLID   1       1       0
$ Pset: "prop" will be imported as: "psolid.1"
CTETRA   1       1       1       52      307     2
CTETRA   2       1       358     307     52      359
CTETRA   3       1       53      2       359     52
CTETRA   4       1       308     359     2       307
CTETRA   5       1       2       52      307     359
CTETRA   6       1       53      359     2       54
CTETRA   7       1       308     2       359     309
CTETRA   8       1       3       309     54      2
CTETRA   9       1       360     54      309     359
CTETRA   10      1       2       54      359     309
CTETRA   11      1       3       54      309     4
CTETRA   12      1       360     309     54      361
CTETRA   13      1       55      4       361     54
CTETRA   14      1       310     361     4       309
CTETRA   15      1       4       54      309     361
CTETRA   16      1       55      361     4       56
CTETRA   17      1       310     4       361     311
CTETRA   18      1       5       311     56      4
CTETRA   19      1       362     56      311     361
CTETRA   20      1       4       56      361     311
$ ... 6230 like lines cut
$ Referenced Material Records
$ Material Record : mat
$ Description of Material : Date: 26-Dec-02           Time: 16:33:37
MAT1     1       210000.         .3
$ Nodes of the Entire Model
GRID     1               0.      0.      0.
GRID     2               2.      0.      0.
GRID     3               4.      0.      0.
GRID     4               6.      0.      0.
GRID     5               8.      0.      0.
GRID     6               10.     0.      0.
GRID     7               12.     0.      0.
GRID     8               14.     0.      0.
GRID     9               16.     0.      0.
GRID     10              18.     0.      0.
GRID     11              20.     0.      0.
GRID     12              22.     0.      0.
GRID     13              24.     0.      0.
GRID     14              26.     0.      0.
GRID     15              28.     0.      0.
GRID     16              30.     0.      0.
GRID     17              32.     0.      0.
GRID     18              34.     0.      0.
GRID     19              36.     0.      0.
GRID     20              38.     0.      0.
$ ... 1816 like lines cut
$ Loads for Load Case : rest
SPCADD   2       1
$ Displacement Constraints of Load Set : rest
SPC1     1       123     1       52      103     154     205
SPC1     1       123     256     THRU    307
SPC1     1       123     358     409     460     511
SPC1     1       123     562     THRU    613
SPC1     1       123     664     715     766     817
SPC1     1       123     868     THRU    919
SPC1     1       123     970     1021    1072    1123
SPC1     1       123     1174    THRU    1225
SPC1     1       123     1276    1327    1378    1429
SPC1     1       123     1480    THRU    1531
SPC1     1       123     1582    1633    1684    1735
SPC1     1       123     1786    THRU    1836
$ Referenced Coordinate Frames
ENDDATA ac97daf7
